/*--------------------------------*- C++ -*----------------------------------*\
| =========                 |                                                 |
| \\      /  F ield         | OpenFOAM: The Open Source CFD Toolbox           |
|  \\    /   O peration     | Version:  v2406                                 |
|   \\  /    A nd           | Website:  www.openfoam.com                      |
|    \\/     M anipulation  |                                                 |
\*---------------------------------------------------------------------------*/
FoamFile
{
    version     2.0;
    format      ascii;
    class       volScalarField;
    object      phiE;
}
// * * * * * * * * * * * * * * * * * * * * * * * * * * * * * * * * * * * * * //

dimensions      [1 2 -3 0 0 -1 0]; // kg*m^2 / (s^3 A)

internalField   uniform 0;

boundaryField
{
    electrode_exposed        
    {    
        type            codedFixedValue;
        value           uniform 9.0e3;
        name            appliedVoltage;   

        code
        #{  
            const scalar t = this->db().time().value();
            const scalar V = 9.0e3;
            // const scalar omega = 15.0E3;
            // const scalar pi(M_PI);
            operator==(V);
            // operator==(V*sin(2*pi*omega*t));
        #};
     }  
    electrode_grounded      
    {
        type            fixedValue;
        value           uniform  0;  
    }
    inlet
    {
        type            zeroGradient; 
    }
    outlet
    {
        type            zeroGradient; 
    }
    front     
    {
        type            empty; 
    }
    back 
    {
        type            empty;      
    }
    top
    {
        type            zeroGradient; 
    }  
    bottom
    {
        type            zeroGradient; 
    }
    air_to_dielectric1
    {
        type            potentialCoupledBaffleMixed;
        value           $internalField;
        sigma           1;
        Tnbr            phiE;
    }
}


// ************************************************************************* //
