/*--------------------------------*- C++ -*----------------------------------*\
| =========                 |                                                 |
| \\      /  F ield         | OpenFOAM: The Open Source CFD Toolbox           |
|  \\    /   O peration     | Version:  v2406                                 |
|   \\  /    A nd           | Website:  www.openfoam.com                      |
|    \\/     M anipulation  |                                                 |
\*---------------------------------------------------------------------------*/
FoamFile
{
    version     2.0;
    format      ascii;
    class       volScalarField;
    object      potE;
}
// * * * * * * * * * * * * * * * * * * * * * * * * * * * * * * * * * * * * * //


dimensions      [0 -3 1 0 0 1 0]; 

internalField   uniform 0;

boundaryField
{
    electrode_exposed        
    {    
        type            zeroGradient;
    }
    electrode_grounded      
    {
        type            zeroGradient;
    }
    inlet
    {
        type            zeroGradient; 
    }
    outlet
    {
        type            zeroGradient; 
    }
    front     
    {
        type            empty; 
    }
    back 
    {
        type            empty;      
    }
    top
    {
        type            zeroGradient; 
    }   
    bottom
    {
        type            zeroGradient; 
    }
    air_to_dielectric1
    {
            type            zeroGradient;
    }
}


// ************************************************************************* //
