/*--------------------------------*- C++ -*----------------------------------*\
| =========                 |                                                 |
| \\      /  F ield         | OpenFOAM: The Open Source CFD Toolbox           |
|  \\    /   O peration     | Version:  2406                                  |
|   \\  /    A nd           | Website:  www.openfoam.com                      |
|    \\/     M anipulation  |                                                 |
\*---------------------------------------------------------------------------*/
FoamFile
{
    version     2.0;
    format      binary;
    arch        "LSB;label=32;scalar=64";
    class       polyBoundaryMesh;
    location    "constant/polyMesh";
    object      boundary;
}
// * * * * * * * * * * * * * * * * * * * * * * * * * * * * * * * * * * * * * //

8
(
    top
    {
        type            patch;
        nFaces          130;
        startFace       47471;
    }
    bottom
    {
        type            patch;
        nFaces          130;
        startFace       47601;
    }
    inlet
    {
        type            patch;
        nFaces          194;
        startFace       47731;
    }
    outlet
    {
        type            patch;
        nFaces          194;
        startFace       47925;
    }
    electrode_exposed
    {
        type            wall;
        inGroups        1(wall);
        nFaces          140;
        startFace       48119;
    }
    electrode_grounded
    {
        type            wall;
        inGroups        1(wall);
        nFaces          150;
        startFace       48259;
    }
    back
    {
        type            empty;
        inGroups        1(empty);
        nFaces          23970;
        startFace       48409;
    }
    front
    {
        type            empty;
        inGroups        1(empty);
        nFaces          23970;
        startFace       72379;
    }
)

// ************************************************************************* //
