/*--------------------------------*- C++ -*----------------------------------*\
| =========                 |                                                 |
| \\      /  F ield         | OpenFOAM: The Open Source CFD Toolbox           |
|  \\    /   O peration     | Version:  2406                                  |
|   \\  /    A nd           | Website:  www.openfoam.com                      |
|    \\/     M anipulation  |                                                 |
\*---------------------------------------------------------------------------*/
FoamFile
{
    version     2.0;
    format      binary;
    arch        "LSB;label=32;scalar=64";
    class       volScalarField;
    location    "0/air";
    object      phiE;
}
// * * * * * * * * * * * * * * * * * * * * * * * * * * * * * * * * * * * * * //

dimensions      [ 1 2 -3 0 0 -1 0 ];

internalField   uniform 0;

boundaryField
{
    top
    {
        type            zeroGradient;
    }
    inlet
    {
        type            zeroGradient;
    }
    outlet
    {
        type            zeroGradient;
    }
    electrode_exposed
    {
        type            codedFixedValue;
        value           uniform 9000;
        name            appliedVoltage;
        code            #{  
            const scalar t = this->db().time().value();
            const scalar V = 9.0e3;
            // const scalar omega = 15.0E3;
            // const scalar pi(M_PI);
            operator==(V);
            // operator==(V*sin(2*pi*omega*t));
        #};
    }
    back
    {
        type            empty;
    }
    front
    {
        type            empty;
    }
    air_to_dielectric1
    {
        type            compressible::turbulentTemperatureRadCoupledMixed;
        value           $internalField;
        Tnbr            phiE;
        qr              rhoC;
        kappaMethod     lookup;
        kappa           epsR;
    }
}


// ************************************************************************* //
