/*--------------------------------*- C++ -*----------------------------------*\
| =========                 |                                                 |
| \\      /  F ield         | OpenFOAM: The Open Source CFD Toolbox           |
|  \\    /   O peration     | Version:  v2406                                 |
|   \\  /    A nd           | Website:  www.openfoam.com                      |
|    \\/     M anipulation  |                                                 |
\*---------------------------------------------------------------------------*/

FoamFile {
    version 2.0;
    format ascii;
    class dictionary;
    object fvSchemes;
}

// * * * * * * * * * * * * * * * * * * * * * * * * * * * * * * * * * * * * * //

ddtSchemes 
{
    // default Euler;
}

gradSchemes 
{
    // default cellLimited Gauss linear 1.0;
    // grad(ne) cellLimited Gauss linear 1;
    // grad(np) cellLimited Gauss linear 1;
    // grad(nn) cellLimited Gauss linear 1;
}

divSchemes 
{
    // default Gauss MUSCL;
    // div(flux_ne,ne) Gauss MUSCL;
    // div(flux_np,np) Gauss MUSCL;
    // div(flux_nn,nn) Gauss MUSCL;
}


laplacianSchemes 
{
    // default Gauss linear limited 1.0;
    // laplacian(epsR,phiE) Gauss linear corrected;
    // laplacian(epsR,rhoC) Gauss linear corrected;
}

curlSchemes 
{
    // default none;
}

interpolationSchemes 
{
    // default linear;
}

snGradSchemes 
{
    // default limited 1.0;
}

// ************************************************************************* //
