/*--------------------------------*- C++ -*----------------------------------*\
| =========                 |                                                 |
| \\      /  F ield         | OpenFOAM: The Open Source CFD Toolbox           |
|  \\    /   O peration     | Version:  v2406                                 |
|   \\  /    A nd           | Website:  www.openfoam.com                      |
|    \\/     M anipulation  |                                                 |
\*---------------------------------------------------------------------------*/
FoamFile
{
    version     2.0;
    format      ascii;
    class       dictionary;
    object      changeDictionaryDict;
}
// * * * * * * * * * * * * * * * * * * * * * * * * * * * * * * * * * * * * * //
phiE
{
    boundaryField
    {
        "dielectric.*"
        {
            type            compressible::turbulentTemperatureRadCoupledMixed;
            value           $internalField;
            Tnbr            phiE;
            // qrNbr           surfC;
            kappaMethod     lookup;
            kappa           epsD;
        }
    }
}

epsD 
{
    boundaryField
    {
        "dielectric.*"
        {
            type            fixedValue;
            value           uniform 3.4;
        }
    }
}