/*--------------------------------*- C++ -*----------------------------------*\
| =========                 |                                                 |
| \\      /  F ield         | OpenFOAM: The Open Source CFD Toolbox           |
|  \\    /   O peration     | Version:  v2406                                 |
|   \\  /    A nd           | Website:  www.openfoam.com                      |
|    \\/     M anipulation  |                                                 |
\*---------------------------------------------------------------------------*/
FoamFile
{
    format      binary;
    class       dictionary;
    location    "system/dielectric1";
    object      fvSchemes;
}
// * * * * * * * * * * * * * * * * * * * * * * * * * * * * * * * * * * * * * //


gradSchemes
{
    default       Gauss linear;
}

divSchemes
{
    default         Gauss linear;
}

laplacianSchemes
{
    default         Gauss linear corrected;
    laplacian(epsD,phiE) Gauss linear corrected;
}

interpolationSchemes
{
    default         linear;
}


// ************************************************************************* //
